<?xml version="1.0" encoding="utf-8"?>
<RelativeLayout xmlns:android="http://schemas.android.com/apk/res/android"
    android:layout_width="match_parent"
    android:layout_height="match_parent">

    <!--<LinearLayout
        android:layout_width="match_parent"
        android:layout_height="match_parent"
        android:orientation="vertical"
        android:visibility="gone">
        <RelativeLayout
            android:layout_width="match_parent"
            android:layout_height="wrap_content"
            android:background="@color/white">

            <net.lucode.hackware.magicindicator.MagicIndicator
                android:id="@+id/magic_indicator"
                android:layout_width="match_parent"
                android:layout_height="40dp"  />
        </RelativeLayout>

        <include layout="@layout/line" />

        <com.hjhq.teamface.common.view.NoScrollViewPager
            android:id="@+id/view_pager"
            android:layout_width="match_parent"
            android:layout_height="match_parent" />
    </LinearLayout>-->

    <RelativeLayout
        android:id="@+id/ll_project_content"
        android:layout_width="match_parent"
        android:layout_height="wrap_content"
        >

        <com.tencent.smtt.sdk.WebView
            android:id="@+id/wv_task_content"
            android:layout_width="match_parent"
            android:layout_height="match_parent"/>

        <!--<com.hjhq.teamface.common.view.TextWebView
            android:id="@+id/wv_task_content"
            android:layout_width="match_parent"
            android:layout_height="wrap_content"
            android:minHeight="300dp"
            android:background="@color/red"/>-->
    </RelativeLayout>

</RelativeLayout>